
---------- Begin Simulation Statistics ----------
final_tick                                   43355601                       # Number of ticks from beginning of simulation (restored from checkpoints and never reset)
host_inst_rate                                 129068                       # Simulator instruction rate (inst/s)
host_mem_usage                                 678756                       # Number of bytes of host memory used
host_op_rate                                   149456                       # Simulator op (including micro ops) rate (op/s)
host_seconds                                     0.22                       # Real time elapsed on the host
host_tick_rate                              199695023                       # Simulator tick rate (ticks/s)
sim_freq                                 1000000000000                       # Frequency of simulated ticks
sim_insts                                       28000                       # Number of instructions simulated
sim_ops                                         32442                       # Number of ops (including micro ops) simulated
sim_seconds                                  0.000043                       # Number of seconds simulated
sim_ticks                                    43355601                       # Number of ticks simulated
system.cpu.branchPred.BTBCorrect                    0                       # Number of correct BTB predictions (this stat may not work properly.
system.cpu.branchPred.BTBHitPct             39.346186                       # BTB Hit Percentage
system.cpu.branchPred.BTBHits                    2347                       # Number of BTB hits
system.cpu.branchPred.BTBLookups                 5965                       # Number of BTB lookups
system.cpu.branchPred.RASInCorrect                  5                       # Number of incorrect RAS predictions.
system.cpu.branchPred.condIncorrect               788                       # Number of conditional branches incorrect
system.cpu.branchPred.condPredicted              4922                       # Number of conditional branches predicted
system.cpu.branchPred.indirectHits                194                       # Number of indirect target hits.
system.cpu.branchPred.indirectLookups             459                       # Number of indirect predictor lookups.
system.cpu.branchPred.indirectMisses              265                       # Number of indirect misses.
system.cpu.branchPred.lookups                    7340                       # Number of BP lookups
system.cpu.branchPred.usedRAS                     637                       # Number of times the RAS was used to get a target.
system.cpu.branchPredindirectMispredicted           73                       # Number of mispredicted indirect branches.
system.cpu.committedInsts                       28000                       # Number of instructions committed
system.cpu.committedOps                         32442                       # Number of ops (including micro ops) committed
system.cpu.cpi                               4.649893                       # CPI: cycles per instruction
system.cpu.discardedOps                          2235                       # Number of ops (including micro ops) which were discarded before commit
system.cpu.dtb.accesses                             0                       # DTB accesses
system.cpu.dtb.align_faults                         0                       # Number of TLB faults due to alignment restrictions
system.cpu.dtb.domain_faults                        0                       # Number of TLB faults due to domain restrictions
system.cpu.dtb.flush_entries                        0                       # Number of entries that have been flushed from TLB
system.cpu.dtb.flush_tlb                            0                       # Number of times complete TLB was flushed
system.cpu.dtb.flush_tlb_asid                       0                       # Number of times TLB was flushed by ASID
system.cpu.dtb.flush_tlb_mva                        0                       # Number of times TLB was flushed by MVA
system.cpu.dtb.flush_tlb_mva_asid                   0                       # Number of times TLB was flushed by MVA & ASID
system.cpu.dtb.hits                                 0                       # DTB hits
system.cpu.dtb.inst_accesses                        0                       # ITB inst accesses
system.cpu.dtb.inst_hits                            0                       # ITB inst hits
system.cpu.dtb.inst_misses                          0                       # ITB inst misses
system.cpu.dtb.misses                               0                       # DTB misses
system.cpu.dtb.perms_faults                         0                       # Number of TLB faults due to permissions restrictions
system.cpu.dtb.prefetch_faults                      0                       # Number of TLB faults due to prefetch
system.cpu.dtb.read_accesses                        0                       # DTB read accesses
system.cpu.dtb.read_hits                            0                       # DTB read hits
system.cpu.dtb.read_misses                          0                       # DTB read misses
system.cpu.dtb.stage2_mmu.stage2_tlb.accesses            0                       # DTB accesses
system.cpu.dtb.stage2_mmu.stage2_tlb.align_faults            0                       # Number of TLB faults due to alignment restrictions
system.cpu.dtb.stage2_mmu.stage2_tlb.domain_faults            0                       # Number of TLB faults due to domain restrictions
system.cpu.dtb.stage2_mmu.stage2_tlb.flush_entries            0                       # Number of entries that have been flushed from TLB
system.cpu.dtb.stage2_mmu.stage2_tlb.flush_tlb            0                       # Number of times complete TLB was flushed
system.cpu.dtb.stage2_mmu.stage2_tlb.flush_tlb_asid            0                       # Number of times TLB was flushed by ASID
system.cpu.dtb.stage2_mmu.stage2_tlb.flush_tlb_mva            0                       # Number of times TLB was flushed by MVA
system.cpu.dtb.stage2_mmu.stage2_tlb.flush_tlb_mva_asid            0                       # Number of times TLB was flushed by MVA & ASID
system.cpu.dtb.stage2_mmu.stage2_tlb.hits            0                       # DTB hits
system.cpu.dtb.stage2_mmu.stage2_tlb.inst_accesses            0                       # ITB inst accesses
system.cpu.dtb.stage2_mmu.stage2_tlb.inst_hits            0                       # ITB inst hits
system.cpu.dtb.stage2_mmu.stage2_tlb.inst_misses            0                       # ITB inst misses
system.cpu.dtb.stage2_mmu.stage2_tlb.misses            0                       # DTB misses
system.cpu.dtb.stage2_mmu.stage2_tlb.perms_faults            0                       # Number of TLB faults due to permissions restrictions
system.cpu.dtb.stage2_mmu.stage2_tlb.prefetch_faults            0                       # Number of TLB faults due to prefetch
system.cpu.dtb.stage2_mmu.stage2_tlb.read_accesses            0                       # DTB read accesses
system.cpu.dtb.stage2_mmu.stage2_tlb.read_hits            0                       # DTB read hits
system.cpu.dtb.stage2_mmu.stage2_tlb.read_misses            0                       # DTB read misses
system.cpu.dtb.stage2_mmu.stage2_tlb.walker.walkRequestOrigin_Requested::Data            0                       # Table walker requests started/completed, data/inst
system.cpu.dtb.stage2_mmu.stage2_tlb.walker.walkRequestOrigin_Requested::Inst            0                       # Table walker requests started/completed, data/inst
system.cpu.dtb.stage2_mmu.stage2_tlb.walker.walkRequestOrigin_Requested::total            0                       # Table walker requests started/completed, data/inst
system.cpu.dtb.stage2_mmu.stage2_tlb.walker.walkRequestOrigin_Completed::Data            0                       # Table walker requests started/completed, data/inst
system.cpu.dtb.stage2_mmu.stage2_tlb.walker.walkRequestOrigin_Completed::Inst            0                       # Table walker requests started/completed, data/inst
system.cpu.dtb.stage2_mmu.stage2_tlb.walker.walkRequestOrigin_Completed::total            0                       # Table walker requests started/completed, data/inst
system.cpu.dtb.stage2_mmu.stage2_tlb.walker.walkRequestOrigin::total            0                       # Table walker requests started/completed, data/inst
system.cpu.dtb.stage2_mmu.stage2_tlb.walker.walks            0                       # Table walker walks requested
system.cpu.dtb.stage2_mmu.stage2_tlb.write_accesses            0                       # DTB write accesses
system.cpu.dtb.stage2_mmu.stage2_tlb.write_hits            0                       # DTB write hits
system.cpu.dtb.stage2_mmu.stage2_tlb.write_misses            0                       # DTB write misses
system.cpu.dtb.walker.walkRequestOrigin_Requested::Data            0                       # Table walker requests started/completed, data/inst
system.cpu.dtb.walker.walkRequestOrigin_Requested::Inst            0                       # Table walker requests started/completed, data/inst
system.cpu.dtb.walker.walkRequestOrigin_Requested::total            0                       # Table walker requests started/completed, data/inst
system.cpu.dtb.walker.walkRequestOrigin_Completed::Data            0                       # Table walker requests started/completed, data/inst
system.cpu.dtb.walker.walkRequestOrigin_Completed::Inst            0                       # Table walker requests started/completed, data/inst
system.cpu.dtb.walker.walkRequestOrigin_Completed::total            0                       # Table walker requests started/completed, data/inst
system.cpu.dtb.walker.walkRequestOrigin::total            0                       # Table walker requests started/completed, data/inst
system.cpu.dtb.walker.walks                         0                       # Table walker walks requested
system.cpu.dtb.write_accesses                       0                       # DTB write accesses
system.cpu.dtb.write_hits                           0                       # DTB write hits
system.cpu.dtb.write_misses                         0                       # DTB write misses
system.cpu.fetch2.amo_instructions                  0                       # Number of memory atomic instructions successfully decoded
system.cpu.fetch2.fp_instructions                   0                       # Number of floating point instructions successfully decoded
system.cpu.fetch2.int_instructions              21247                       # Number of integer instructions successfully decoded
system.cpu.fetch2.load_instructions              4840                       # Number of memory load instructions successfully decoded
system.cpu.fetch2.store_instructions             3003                       # Number of memory store instructions successfully decoded
system.cpu.fetch2.vec_instructions                  0                       # Number of SIMD instructions successfully decoded
system.cpu.idleCycles                           87491                       # Total number of cycles that the object has spent stopped
system.cpu.ipc                               0.215059                       # IPC: instructions per cycle
system.cpu.itb.accesses                             0                       # DTB accesses
system.cpu.itb.align_faults                         0                       # Number of TLB faults due to alignment restrictions
system.cpu.itb.domain_faults                        0                       # Number of TLB faults due to domain restrictions
system.cpu.itb.flush_entries                        0                       # Number of entries that have been flushed from TLB
system.cpu.itb.flush_tlb                            0                       # Number of times complete TLB was flushed
system.cpu.itb.flush_tlb_asid                       0                       # Number of times TLB was flushed by ASID
system.cpu.itb.flush_tlb_mva                        0                       # Number of times TLB was flushed by MVA
system.cpu.itb.flush_tlb_mva_asid                   0                       # Number of times TLB was flushed by MVA & ASID
system.cpu.itb.hits                                 0                       # DTB hits
system.cpu.itb.inst_accesses                        0                       # ITB inst accesses
system.cpu.itb.inst_hits                            0                       # ITB inst hits
system.cpu.itb.inst_misses                          0                       # ITB inst misses
system.cpu.itb.misses                               0                       # DTB misses
system.cpu.itb.perms_faults                         0                       # Number of TLB faults due to permissions restrictions
system.cpu.itb.prefetch_faults                      0                       # Number of TLB faults due to prefetch
system.cpu.itb.read_accesses                        0                       # DTB read accesses
system.cpu.itb.read_hits                            0                       # DTB read hits
system.cpu.itb.read_misses                          0                       # DTB read misses
system.cpu.itb.stage2_mmu.stage2_tlb.accesses            0                       # DTB accesses
system.cpu.itb.stage2_mmu.stage2_tlb.align_faults            0                       # Number of TLB faults due to alignment restrictions
system.cpu.itb.stage2_mmu.stage2_tlb.domain_faults            0                       # Number of TLB faults due to domain restrictions
system.cpu.itb.stage2_mmu.stage2_tlb.flush_entries            0                       # Number of entries that have been flushed from TLB
system.cpu.itb.stage2_mmu.stage2_tlb.flush_tlb            0                       # Number of times complete TLB was flushed
system.cpu.itb.stage2_mmu.stage2_tlb.flush_tlb_asid            0                       # Number of times TLB was flushed by ASID
system.cpu.itb.stage2_mmu.stage2_tlb.flush_tlb_mva            0                       # Number of times TLB was flushed by MVA
system.cpu.itb.stage2_mmu.stage2_tlb.flush_tlb_mva_asid            0                       # Number of times TLB was flushed by MVA & ASID
system.cpu.itb.stage2_mmu.stage2_tlb.hits            0                       # DTB hits
system.cpu.itb.stage2_mmu.stage2_tlb.inst_accesses            0                       # ITB inst accesses
system.cpu.itb.stage2_mmu.stage2_tlb.inst_hits            0                       # ITB inst hits
system.cpu.itb.stage2_mmu.stage2_tlb.inst_misses            0                       # ITB inst misses
system.cpu.itb.stage2_mmu.stage2_tlb.misses            0                       # DTB misses
system.cpu.itb.stage2_mmu.stage2_tlb.perms_faults            0                       # Number of TLB faults due to permissions restrictions
system.cpu.itb.stage2_mmu.stage2_tlb.prefetch_faults            0                       # Number of TLB faults due to prefetch
system.cpu.itb.stage2_mmu.stage2_tlb.read_accesses            0                       # DTB read accesses
system.cpu.itb.stage2_mmu.stage2_tlb.read_hits            0                       # DTB read hits
system.cpu.itb.stage2_mmu.stage2_tlb.read_misses            0                       # DTB read misses
system.cpu.itb.stage2_mmu.stage2_tlb.walker.walkRequestOrigin_Requested::Data            0                       # Table walker requests started/completed, data/inst
system.cpu.itb.stage2_mmu.stage2_tlb.walker.walkRequestOrigin_Requested::Inst            0                       # Table walker requests started/completed, data/inst
system.cpu.itb.stage2_mmu.stage2_tlb.walker.walkRequestOrigin_Requested::total            0                       # Table walker requests started/completed, data/inst
system.cpu.itb.stage2_mmu.stage2_tlb.walker.walkRequestOrigin_Completed::Data            0                       # Table walker requests started/completed, data/inst
system.cpu.itb.stage2_mmu.stage2_tlb.walker.walkRequestOrigin_Completed::Inst            0                       # Table walker requests started/completed, data/inst
system.cpu.itb.stage2_mmu.stage2_tlb.walker.walkRequestOrigin_Completed::total            0                       # Table walker requests started/completed, data/inst
system.cpu.itb.stage2_mmu.stage2_tlb.walker.walkRequestOrigin::total            0                       # Table walker requests started/completed, data/inst
system.cpu.itb.stage2_mmu.stage2_tlb.walker.walks            0                       # Table walker walks requested
system.cpu.itb.stage2_mmu.stage2_tlb.write_accesses            0                       # DTB write accesses
system.cpu.itb.stage2_mmu.stage2_tlb.write_hits            0                       # DTB write hits
system.cpu.itb.stage2_mmu.stage2_tlb.write_misses            0                       # DTB write misses
system.cpu.itb.walker.walkRequestOrigin_Requested::Data            0                       # Table walker requests started/completed, data/inst
system.cpu.itb.walker.walkRequestOrigin_Requested::Inst            0                       # Table walker requests started/completed, data/inst
system.cpu.itb.walker.walkRequestOrigin_Requested::total            0                       # Table walker requests started/completed, data/inst
system.cpu.itb.walker.walkRequestOrigin_Completed::Data            0                       # Table walker requests started/completed, data/inst
system.cpu.itb.walker.walkRequestOrigin_Completed::Inst            0                       # Table walker requests started/completed, data/inst
system.cpu.itb.walker.walkRequestOrigin_Completed::total            0                       # Table walker requests started/completed, data/inst
system.cpu.itb.walker.walkRequestOrigin::total            0                       # Table walker requests started/completed, data/inst
system.cpu.itb.walker.walks                         0                       # Table walker walks requested
system.cpu.itb.write_accesses                       0                       # DTB write accesses
system.cpu.itb.write_hits                           0                       # DTB write hits
system.cpu.itb.write_misses                         0                       # DTB write misses
system.cpu.numCycles                           130197                       # number of cpu cycles simulated
system.cpu.numFetchSuspends                         0                       # Number of times Execute suspended instruction fetching
system.cpu.numWorkItemsCompleted                    0                       # number of work items this cpu completed
system.cpu.numWorkItemsStarted                      0                       # number of work items this cpu started
system.cpu.op_class_0::No_OpClass                   0      0.00%      0.00% # Class of committed instruction
system.cpu.op_class_0::IntAlu                   22244     68.57%     68.57% # Class of committed instruction
system.cpu.op_class_0::IntMult                    239      0.74%     69.30% # Class of committed instruction
system.cpu.op_class_0::IntDiv                       0      0.00%     69.30% # Class of committed instruction
system.cpu.op_class_0::FloatAdd                     0      0.00%     69.30% # Class of committed instruction
system.cpu.op_class_0::FloatCmp                     0      0.00%     69.30% # Class of committed instruction
system.cpu.op_class_0::FloatCvt                     0      0.00%     69.30% # Class of committed instruction
system.cpu.op_class_0::FloatMult                    0      0.00%     69.30% # Class of committed instruction
system.cpu.op_class_0::FloatMultAcc                 0      0.00%     69.30% # Class of committed instruction
system.cpu.op_class_0::FloatDiv                     0      0.00%     69.30% # Class of committed instruction
system.cpu.op_class_0::FloatMisc                    0      0.00%     69.30% # Class of committed instruction
system.cpu.op_class_0::FloatSqrt                    0      0.00%     69.30% # Class of committed instruction
system.cpu.op_class_0::SimdAdd                      0      0.00%     69.30% # Class of committed instruction
system.cpu.op_class_0::SimdAddAcc                   0      0.00%     69.30% # Class of committed instruction
system.cpu.op_class_0::SimdAlu                      0      0.00%     69.30% # Class of committed instruction
system.cpu.op_class_0::SimdCmp                      0      0.00%     69.30% # Class of committed instruction
system.cpu.op_class_0::SimdCvt                      0      0.00%     69.30% # Class of committed instruction
system.cpu.op_class_0::SimdMisc                     0      0.00%     69.30% # Class of committed instruction
system.cpu.op_class_0::SimdMult                     0      0.00%     69.30% # Class of committed instruction
system.cpu.op_class_0::SimdMultAcc                  0      0.00%     69.30% # Class of committed instruction
system.cpu.op_class_0::SimdShift                    0      0.00%     69.30% # Class of committed instruction
system.cpu.op_class_0::SimdShiftAcc                 0      0.00%     69.30% # Class of committed instruction
system.cpu.op_class_0::SimdDiv                      0      0.00%     69.30% # Class of committed instruction
system.cpu.op_class_0::SimdSqrt                     0      0.00%     69.30% # Class of committed instruction
system.cpu.op_class_0::SimdFloatAdd                 0      0.00%     69.30% # Class of committed instruction
system.cpu.op_class_0::SimdFloatAlu                 0      0.00%     69.30% # Class of committed instruction
system.cpu.op_class_0::SimdFloatCmp                 0      0.00%     69.30% # Class of committed instruction
system.cpu.op_class_0::SimdFloatCvt                 0      0.00%     69.30% # Class of committed instruction
system.cpu.op_class_0::SimdFloatDiv                 0      0.00%     69.30% # Class of committed instruction
system.cpu.op_class_0::SimdFloatMisc               21      0.06%     69.37% # Class of committed instruction
system.cpu.op_class_0::SimdFloatMult                0      0.00%     69.37% # Class of committed instruction
system.cpu.op_class_0::SimdFloatMultAcc             0      0.00%     69.37% # Class of committed instruction
system.cpu.op_class_0::SimdFloatSqrt                0      0.00%     69.37% # Class of committed instruction
system.cpu.op_class_0::SimdReduceAdd                0      0.00%     69.37% # Class of committed instruction
system.cpu.op_class_0::SimdReduceAlu                0      0.00%     69.37% # Class of committed instruction
system.cpu.op_class_0::SimdReduceCmp                0      0.00%     69.37% # Class of committed instruction
system.cpu.op_class_0::SimdFloatReduceAdd            0      0.00%     69.37% # Class of committed instruction
system.cpu.op_class_0::SimdFloatReduceCmp            0      0.00%     69.37% # Class of committed instruction
system.cpu.op_class_0::SimdAes                      0      0.00%     69.37% # Class of committed instruction
system.cpu.op_class_0::SimdAesMix                   0      0.00%     69.37% # Class of committed instruction
system.cpu.op_class_0::SimdSha1Hash                 0      0.00%     69.37% # Class of committed instruction
system.cpu.op_class_0::SimdSha1Hash2                0      0.00%     69.37% # Class of committed instruction
system.cpu.op_class_0::SimdSha256Hash               0      0.00%     69.37% # Class of committed instruction
system.cpu.op_class_0::SimdSha256Hash2              0      0.00%     69.37% # Class of committed instruction
system.cpu.op_class_0::SimdShaSigma2                0      0.00%     69.37% # Class of committed instruction
system.cpu.op_class_0::SimdShaSigma3                0      0.00%     69.37% # Class of committed instruction
system.cpu.op_class_0::SimdPredAlu                  0      0.00%     69.37% # Class of committed instruction
system.cpu.op_class_0::MemRead                   5194     16.01%     85.38% # Class of committed instruction
system.cpu.op_class_0::MemWrite                  4744     14.62%    100.00% # Class of committed instruction
system.cpu.op_class_0::FloatMemRead                 0      0.00%    100.00% # Class of committed instruction
system.cpu.op_class_0::FloatMemWrite                0      0.00%    100.00% # Class of committed instruction
system.cpu.op_class_0::IprAccess                    0      0.00%    100.00% # Class of committed instruction
system.cpu.op_class_0::InstPrefetch                 0      0.00%    100.00% # Class of committed instruction
system.cpu.op_class_0::total                    32442                       # Class of committed instruction
system.cpu.tickCycles                           42706                       # Number of cycles that the object actually ticked
system.cpu.workload.numSyscalls                    10                       # Number of system calls
system.membus.snoop_filter.hit_multi_requests            5                       # Number of requests hitting in the snoop filter with multiple (>1) holders of the requested data.
system.membus.snoop_filter.hit_multi_snoops            0                       # Number of snoops hitting in the snoop filter with multiple (>1) holders of the requested data.
system.membus.snoop_filter.hit_single_requests          235                       # Number of requests hitting in the snoop filter with a single holder of the requested data.
system.membus.snoop_filter.hit_single_snoops            0                       # Number of snoops hitting in the snoop filter with a single holder of the requested data.
system.membus.snoop_filter.tot_requests           930                       # Total number of requests made to the snoop filter.
system.membus.snoop_filter.tot_snoops               0                       # Total number of snoops made to the snoop filter.
system.membus.pwrStateResidencyTicks::UNDEFINED     43355601                       # Cumulative time (in ticks) in various power states
system.membus.trans_dist::ReadResp                645                       # Transaction distribution
system.membus.trans_dist::WritebackClean          213                       # Transaction distribution
system.membus.trans_dist::CleanEvict                1                       # Transaction distribution
system.membus.trans_dist::ReadExReq                71                       # Transaction distribution
system.membus.trans_dist::ReadExResp               71                       # Transaction distribution
system.membus.trans_dist::ReadCleanReq            533                       # Transaction distribution
system.membus.trans_dist::ReadSharedReq           112                       # Transaction distribution
system.membus.pkt_count_system.cpu.icache.mem_side::system.mem_ctrls.port         1279                       # Packet count per connected master and slave (bytes)
system.membus.pkt_count_system.cpu.dcache.mem_side::system.mem_ctrls.port          367                       # Packet count per connected master and slave (bytes)
system.membus.pkt_count::total                   1646                       # Packet count per connected master and slave (bytes)
system.membus.pkt_size_system.cpu.icache.mem_side::system.mem_ctrls.port        47744                       # Cumulative packet size per connected master and slave (bytes)
system.membus.pkt_size_system.cpu.dcache.mem_side::system.mem_ctrls.port        11712                       # Cumulative packet size per connected master and slave (bytes)
system.membus.pkt_size::total                   59456                       # Cumulative packet size per connected master and slave (bytes)
system.membus.snoops                                0                       # Total snoops (count)
system.membus.snoopTraffic                          0                       # Total snoop traffic (bytes)
system.membus.snoop_fanout::samples               716                       # Request fanout histogram
system.membus.snoop_fanout::mean             0.036313                       # Request fanout histogram
system.membus.snoop_fanout::stdev            0.187198                       # Request fanout histogram
system.membus.snoop_fanout::underflows              0      0.00%      0.00% # Request fanout histogram
system.membus.snoop_fanout::0                     690     96.37%     96.37% # Request fanout histogram
system.membus.snoop_fanout::1                      26      3.63%    100.00% # Request fanout histogram
system.membus.snoop_fanout::2                       0      0.00%    100.00% # Request fanout histogram
system.membus.snoop_fanout::overflows               0      0.00%    100.00% # Request fanout histogram
system.membus.snoop_fanout::min_value               0                       # Request fanout histogram
system.membus.snoop_fanout::max_value               1                       # Request fanout histogram
system.membus.snoop_fanout::total                 716                       # Request fanout histogram
system.membus.reqLayer0.occupancy             2160106                       # Layer occupancy (ticks)
system.membus.reqLayer0.utilization               5.0                       # Layer utilization (%)
system.membus.respLayer1.occupancy            2795511                       # Layer occupancy (ticks)
system.membus.respLayer1.utilization              6.4                       # Layer utilization (%)
system.membus.respLayer2.occupancy             984721                       # Layer occupancy (ticks)
system.membus.respLayer2.utilization              2.3                       # Layer utilization (%)
system.voltage_domain.voltage                       1                       # Voltage in Volts
system.clk_domain.clock                          1000                       # Clock period in ticks
system.cpu_voltage_domain.voltage                   1                       # Voltage in Volts
system.mem_ctrls.pwrStateResidencyTicks::UNDEFINED     43355601                       # Cumulative time (in ticks) in various power states
system.mem_ctrls.bytes_read::.cpu.inst          34112                       # Number of bytes read from this memory
system.mem_ctrls.bytes_read::.cpu.data          11712                       # Number of bytes read from this memory
system.mem_ctrls.bytes_read::total              45824                       # Number of bytes read from this memory
system.mem_ctrls.bytes_inst_read::.cpu.inst        34112                       # Number of instructions bytes read from this memory
system.mem_ctrls.bytes_inst_read::total         34112                       # Number of instructions bytes read from this memory
system.mem_ctrls.num_reads::.cpu.inst             533                       # Number of read requests responded to by this memory
system.mem_ctrls.num_reads::.cpu.data             183                       # Number of read requests responded to by this memory
system.mem_ctrls.num_reads::total                 716                       # Number of read requests responded to by this memory
system.mem_ctrls.bw_read::.cpu.inst         786795690                       # Total read bandwidth from this memory (bytes/s)
system.mem_ctrls.bw_read::.cpu.data         270138107                       # Total read bandwidth from this memory (bytes/s)
system.mem_ctrls.bw_read::total            1056933797                       # Total read bandwidth from this memory (bytes/s)
system.mem_ctrls.bw_inst_read::.cpu.inst    786795690                       # Instruction read bandwidth from this memory (bytes/s)
system.mem_ctrls.bw_inst_read::total        786795690                       # Instruction read bandwidth from this memory (bytes/s)
system.mem_ctrls.bw_total::.cpu.inst        786795690                       # Total bandwidth to/from this memory (bytes/s)
system.mem_ctrls.bw_total::.cpu.data        270138107                       # Total bandwidth to/from this memory (bytes/s)
system.mem_ctrls.bw_total::total           1056933797                       # Total bandwidth to/from this memory (bytes/s)
system.mem_ctrls.avgPriority_.writebacks::samples        92.00                       # Average QoS priority value for accepted requests
system.mem_ctrls.avgPriority_.cpu.inst::samples       403.00                       # Average QoS priority value for accepted requests
system.mem_ctrls.avgPriority_.cpu.data::samples       182.00                       # Average QoS priority value for accepted requests
system.mem_ctrls.priorityMinLatency      0.000000018750                       # per QoS priority minimum request to response latency (s)
system.mem_ctrls.priorityMaxLatency      0.000041656168                       # per QoS priority maximum request to response latency (s)
system.mem_ctrls.numReadWriteTurnArounds            4                       # Number of turnarounds from READ to WRITE
system.mem_ctrls.numWriteReadTurnArounds            4                       # Number of turnarounds from WRITE to READ
system.mem_ctrls.numStayReadState                1376                       # Number of times bus staying in READ state
system.mem_ctrls.numStayWriteState                 60                       # Number of times bus staying in WRITE state
system.mem_ctrls.readReqs                         716                       # Number of read requests accepted
system.mem_ctrls.writeReqs                        208                       # Number of write requests accepted
system.mem_ctrls.readBursts                       716                       # Number of DRAM read bursts, including those serviced by the write queue
system.mem_ctrls.writeBursts                      208                       # Number of DRAM write bursts, including those merged in the write queue
system.mem_ctrls.servicedByWrQ                    131                       # Number of DRAM read bursts serviced by the write queue
system.mem_ctrls.mergedWrBursts                   116                       # Number of DRAM write bursts merged with an existing one
system.mem_ctrls.neitherReadNorWriteReqs            0                       # Number of requests that are neither read nor write
system.mem_ctrls.perBankRdBursts::0                56                       # Per bank write bursts
system.mem_ctrls.perBankRdBursts::1                 2                       # Per bank write bursts
system.mem_ctrls.perBankRdBursts::2                24                       # Per bank write bursts
system.mem_ctrls.perBankRdBursts::3                50                       # Per bank write bursts
system.mem_ctrls.perBankRdBursts::4                12                       # Per bank write bursts
system.mem_ctrls.perBankRdBursts::5                35                       # Per bank write bursts
system.mem_ctrls.perBankRdBursts::6                44                       # Per bank write bursts
system.mem_ctrls.perBankRdBursts::7                54                       # Per bank write bursts
system.mem_ctrls.perBankRdBursts::8               115                       # Per bank write bursts
system.mem_ctrls.perBankRdBursts::9                71                       # Per bank write bursts
system.mem_ctrls.perBankRdBursts::10               27                       # Per bank write bursts
system.mem_ctrls.perBankRdBursts::11               71                       # Per bank write bursts
system.mem_ctrls.perBankRdBursts::12               11                       # Per bank write bursts
system.mem_ctrls.perBankRdBursts::13                8                       # Per bank write bursts
system.mem_ctrls.perBankRdBursts::14                5                       # Per bank write bursts
system.mem_ctrls.perBankRdBursts::15                0                       # Per bank write bursts
system.mem_ctrls.perBankWrBursts::0                12                       # Per bank write bursts
system.mem_ctrls.perBankWrBursts::1                 0                       # Per bank write bursts
system.mem_ctrls.perBankWrBursts::2                 2                       # Per bank write bursts
system.mem_ctrls.perBankWrBursts::3                 0                       # Per bank write bursts
system.mem_ctrls.perBankWrBursts::4                 0                       # Per bank write bursts
system.mem_ctrls.perBankWrBursts::5                 1                       # Per bank write bursts
system.mem_ctrls.perBankWrBursts::6                 3                       # Per bank write bursts
system.mem_ctrls.perBankWrBursts::7                10                       # Per bank write bursts
system.mem_ctrls.perBankWrBursts::8                15                       # Per bank write bursts
system.mem_ctrls.perBankWrBursts::9                 6                       # Per bank write bursts
system.mem_ctrls.perBankWrBursts::10                0                       # Per bank write bursts
system.mem_ctrls.perBankWrBursts::11               15                       # Per bank write bursts
system.mem_ctrls.perBankWrBursts::12                0                       # Per bank write bursts
system.mem_ctrls.perBankWrBursts::13                0                       # Per bank write bursts
system.mem_ctrls.perBankWrBursts::14                0                       # Per bank write bursts
system.mem_ctrls.perBankWrBursts::15                0                       # Per bank write bursts
system.mem_ctrls.avgRdQLen                       1.15                       # Average read queue length when enqueuing
system.mem_ctrls.avgWrQLen                      14.05                       # Average write queue length when enqueuing
system.mem_ctrls.totQLat                      3905162                       # Total ticks spent queuing
system.mem_ctrls.totBusLat                    2925000                       # Total ticks spent in databus transfers
system.mem_ctrls.totMemAccLat                14873912                       # Total ticks spent from burst creation until serviced by the DRAM
system.mem_ctrls.avgQLat                      6675.49                       # Average queueing delay per DRAM burst
system.mem_ctrls.avgBusLat                    5000.00                       # Average bus latency per DRAM burst
system.mem_ctrls.avgMemAccLat                25425.49                       # Average memory access latency per DRAM burst
system.mem_ctrls.numRdRetry                         0                       # Number of times read queue was full causing retry
system.mem_ctrls.numWrRetry                         0                       # Number of times write queue was full causing retry
system.mem_ctrls.readRowHits                      474                       # Number of row buffer hits during reads
system.mem_ctrls.writeRowHits                      52                       # Number of row buffer hits during writes
system.mem_ctrls.readRowHitRate                 81.03                       # Row buffer hit rate for reads
system.mem_ctrls.writeRowHitRate                56.52                       # Row buffer hit rate for writes
system.mem_ctrls.readPktSize::0                     0                       # Read request sizes (log2)
system.mem_ctrls.readPktSize::1                     0                       # Read request sizes (log2)
system.mem_ctrls.readPktSize::2                     0                       # Read request sizes (log2)
system.mem_ctrls.readPktSize::3                     0                       # Read request sizes (log2)
system.mem_ctrls.readPktSize::4                     0                       # Read request sizes (log2)
system.mem_ctrls.readPktSize::5                     0                       # Read request sizes (log2)
system.mem_ctrls.readPktSize::6                   716                       # Read request sizes (log2)
system.mem_ctrls.writePktSize::0                    0                       # Write request sizes (log2)
system.mem_ctrls.writePktSize::1                    0                       # Write request sizes (log2)
system.mem_ctrls.writePktSize::2                    0                       # Write request sizes (log2)
system.mem_ctrls.writePktSize::3                    0                       # Write request sizes (log2)
system.mem_ctrls.writePktSize::4                    0                       # Write request sizes (log2)
system.mem_ctrls.writePktSize::5                    0                       # Write request sizes (log2)
system.mem_ctrls.writePktSize::6                  208                       # Write request sizes (log2)
system.mem_ctrls.rdQLenPdf::0                     488                       # What read queue length does an incoming req see
system.mem_ctrls.rdQLenPdf::1                      90                       # What read queue length does an incoming req see
system.mem_ctrls.rdQLenPdf::2                       7                       # What read queue length does an incoming req see
system.mem_ctrls.rdQLenPdf::3                       0                       # What read queue length does an incoming req see
system.mem_ctrls.rdQLenPdf::4                       0                       # What read queue length does an incoming req see
system.mem_ctrls.rdQLenPdf::5                       0                       # What read queue length does an incoming req see
system.mem_ctrls.rdQLenPdf::6                       0                       # What read queue length does an incoming req see
system.mem_ctrls.rdQLenPdf::7                       0                       # What read queue length does an incoming req see
system.mem_ctrls.rdQLenPdf::8                       0                       # What read queue length does an incoming req see
system.mem_ctrls.rdQLenPdf::9                       0                       # What read queue length does an incoming req see
system.mem_ctrls.rdQLenPdf::10                      0                       # What read queue length does an incoming req see
system.mem_ctrls.rdQLenPdf::11                      0                       # What read queue length does an incoming req see
system.mem_ctrls.rdQLenPdf::12                      0                       # What read queue length does an incoming req see
system.mem_ctrls.rdQLenPdf::13                      0                       # What read queue length does an incoming req see
system.mem_ctrls.rdQLenPdf::14                      0                       # What read queue length does an incoming req see
system.mem_ctrls.rdQLenPdf::15                      0                       # What read queue length does an incoming req see
system.mem_ctrls.rdQLenPdf::16                      0                       # What read queue length does an incoming req see
system.mem_ctrls.rdQLenPdf::17                      0                       # What read queue length does an incoming req see
system.mem_ctrls.rdQLenPdf::18                      0                       # What read queue length does an incoming req see
system.mem_ctrls.rdQLenPdf::19                      0                       # What read queue length does an incoming req see
system.mem_ctrls.rdQLenPdf::20                      0                       # What read queue length does an incoming req see
system.mem_ctrls.rdQLenPdf::21                      0                       # What read queue length does an incoming req see
system.mem_ctrls.rdQLenPdf::22                      0                       # What read queue length does an incoming req see
system.mem_ctrls.rdQLenPdf::23                      0                       # What read queue length does an incoming req see
system.mem_ctrls.rdQLenPdf::24                      0                       # What read queue length does an incoming req see
system.mem_ctrls.rdQLenPdf::25                      0                       # What read queue length does an incoming req see
system.mem_ctrls.rdQLenPdf::26                      0                       # What read queue length does an incoming req see
system.mem_ctrls.rdQLenPdf::27                      0                       # What read queue length does an incoming req see
system.mem_ctrls.rdQLenPdf::28                      0                       # What read queue length does an incoming req see
system.mem_ctrls.rdQLenPdf::29                      0                       # What read queue length does an incoming req see
system.mem_ctrls.rdQLenPdf::30                      0                       # What read queue length does an incoming req see
system.mem_ctrls.rdQLenPdf::31                      0                       # What read queue length does an incoming req see
system.mem_ctrls.wrQLenPdf::0                       1                       # What write queue length does an incoming req see
system.mem_ctrls.wrQLenPdf::1                       1                       # What write queue length does an incoming req see
system.mem_ctrls.wrQLenPdf::2                       1                       # What write queue length does an incoming req see
system.mem_ctrls.wrQLenPdf::3                       1                       # What write queue length does an incoming req see
system.mem_ctrls.wrQLenPdf::4                       1                       # What write queue length does an incoming req see
system.mem_ctrls.wrQLenPdf::5                       1                       # What write queue length does an incoming req see
system.mem_ctrls.wrQLenPdf::6                       1                       # What write queue length does an incoming req see
system.mem_ctrls.wrQLenPdf::7                       1                       # What write queue length does an incoming req see
system.mem_ctrls.wrQLenPdf::8                       1                       # What write queue length does an incoming req see
system.mem_ctrls.wrQLenPdf::9                       1                       # What write queue length does an incoming req see
system.mem_ctrls.wrQLenPdf::10                      1                       # What write queue length does an incoming req see
system.mem_ctrls.wrQLenPdf::11                      1                       # What write queue length does an incoming req see
system.mem_ctrls.wrQLenPdf::12                      1                       # What write queue length does an incoming req see
system.mem_ctrls.wrQLenPdf::13                      1                       # What write queue length does an incoming req see
system.mem_ctrls.wrQLenPdf::14                      1                       # What write queue length does an incoming req see
system.mem_ctrls.wrQLenPdf::15                      1                       # What write queue length does an incoming req see
system.mem_ctrls.wrQLenPdf::16                      1                       # What write queue length does an incoming req see
system.mem_ctrls.wrQLenPdf::17                      4                       # What write queue length does an incoming req see
system.mem_ctrls.wrQLenPdf::18                      5                       # What write queue length does an incoming req see
system.mem_ctrls.wrQLenPdf::19                      5                       # What write queue length does an incoming req see
system.mem_ctrls.wrQLenPdf::20                      5                       # What write queue length does an incoming req see
system.mem_ctrls.wrQLenPdf::21                      5                       # What write queue length does an incoming req see
system.mem_ctrls.wrQLenPdf::22                      6                       # What write queue length does an incoming req see
system.mem_ctrls.wrQLenPdf::23                      5                       # What write queue length does an incoming req see
system.mem_ctrls.wrQLenPdf::24                      5                       # What write queue length does an incoming req see
system.mem_ctrls.wrQLenPdf::25                      5                       # What write queue length does an incoming req see
system.mem_ctrls.wrQLenPdf::26                      5                       # What write queue length does an incoming req see
system.mem_ctrls.wrQLenPdf::27                      5                       # What write queue length does an incoming req see
system.mem_ctrls.wrQLenPdf::28                      4                       # What write queue length does an incoming req see
system.mem_ctrls.wrQLenPdf::29                      4                       # What write queue length does an incoming req see
system.mem_ctrls.wrQLenPdf::30                      4                       # What write queue length does an incoming req see
system.mem_ctrls.wrQLenPdf::31                      4                       # What write queue length does an incoming req see
system.mem_ctrls.wrQLenPdf::32                      4                       # What write queue length does an incoming req see
system.mem_ctrls.wrQLenPdf::33                      0                       # What write queue length does an incoming req see
system.mem_ctrls.wrQLenPdf::34                      0                       # What write queue length does an incoming req see
system.mem_ctrls.wrQLenPdf::35                      0                       # What write queue length does an incoming req see
system.mem_ctrls.wrQLenPdf::36                      0                       # What write queue length does an incoming req see
system.mem_ctrls.wrQLenPdf::37                      0                       # What write queue length does an incoming req see
system.mem_ctrls.wrQLenPdf::38                      0                       # What write queue length does an incoming req see
system.mem_ctrls.wrQLenPdf::39                      0                       # What write queue length does an incoming req see
system.mem_ctrls.wrQLenPdf::40                      0                       # What write queue length does an incoming req see
system.mem_ctrls.wrQLenPdf::41                      0                       # What write queue length does an incoming req see
system.mem_ctrls.wrQLenPdf::42                      0                       # What write queue length does an incoming req see
system.mem_ctrls.wrQLenPdf::43                      0                       # What write queue length does an incoming req see
system.mem_ctrls.wrQLenPdf::44                      0                       # What write queue length does an incoming req see
system.mem_ctrls.wrQLenPdf::45                      0                       # What write queue length does an incoming req see
system.mem_ctrls.wrQLenPdf::46                      0                       # What write queue length does an incoming req see
system.mem_ctrls.wrQLenPdf::47                      0                       # What write queue length does an incoming req see
system.mem_ctrls.wrQLenPdf::48                      0                       # What write queue length does an incoming req see
system.mem_ctrls.wrQLenPdf::49                      0                       # What write queue length does an incoming req see
system.mem_ctrls.wrQLenPdf::50                      0                       # What write queue length does an incoming req see
system.mem_ctrls.wrQLenPdf::51                      0                       # What write queue length does an incoming req see
system.mem_ctrls.wrQLenPdf::52                      0                       # What write queue length does an incoming req see
system.mem_ctrls.wrQLenPdf::53                      0                       # What write queue length does an incoming req see
system.mem_ctrls.wrQLenPdf::54                      0                       # What write queue length does an incoming req see
system.mem_ctrls.wrQLenPdf::55                      0                       # What write queue length does an incoming req see
system.mem_ctrls.wrQLenPdf::56                      0                       # What write queue length does an incoming req see
system.mem_ctrls.wrQLenPdf::57                      0                       # What write queue length does an incoming req see
system.mem_ctrls.wrQLenPdf::58                      0                       # What write queue length does an incoming req see
system.mem_ctrls.wrQLenPdf::59                      0                       # What write queue length does an incoming req see
system.mem_ctrls.wrQLenPdf::60                      0                       # What write queue length does an incoming req see
system.mem_ctrls.wrQLenPdf::61                      0                       # What write queue length does an incoming req see
system.mem_ctrls.wrQLenPdf::62                      0                       # What write queue length does an incoming req see
system.mem_ctrls.wrQLenPdf::63                      0                       # What write queue length does an incoming req see
system.mem_ctrls.bytesPerActivate::samples          113                       # Bytes accessed per row activation
system.mem_ctrls.bytesPerActivate::mean    336.991150                       # Bytes accessed per row activation
system.mem_ctrls.bytesPerActivate::gmean   226.290175                       # Bytes accessed per row activation
system.mem_ctrls.bytesPerActivate::stdev   305.142838                       # Bytes accessed per row activation
system.mem_ctrls.bytesPerActivate::0-127           23     20.35%     20.35% # Bytes accessed per row activation
system.mem_ctrls.bytesPerActivate::128-255           36     31.86%     52.21% # Bytes accessed per row activation
system.mem_ctrls.bytesPerActivate::256-383           18     15.93%     68.14% # Bytes accessed per row activation
system.mem_ctrls.bytesPerActivate::384-511            9      7.96%     76.11% # Bytes accessed per row activation
system.mem_ctrls.bytesPerActivate::512-639            6      5.31%     81.42% # Bytes accessed per row activation
system.mem_ctrls.bytesPerActivate::640-767            5      4.42%     85.84% # Bytes accessed per row activation
system.mem_ctrls.bytesPerActivate::768-895            3      2.65%     88.50% # Bytes accessed per row activation
system.mem_ctrls.bytesPerActivate::896-1023            2      1.77%     90.27% # Bytes accessed per row activation
system.mem_ctrls.bytesPerActivate::1024-1151           11      9.73%    100.00% # Bytes accessed per row activation
system.mem_ctrls.bytesPerActivate::total          113                       # Bytes accessed per row activation
system.mem_ctrls.rdPerTurnAround::samples            4                       # Reads before turning the bus around for writes
system.mem_ctrls.rdPerTurnAround::mean     133.750000                       # Reads before turning the bus around for writes
system.mem_ctrls.rdPerTurnAround::gmean     67.889951                       # Reads before turning the bus around for writes
system.mem_ctrls.rdPerTurnAround::stdev    190.486001                       # Reads before turning the bus around for writes
system.mem_ctrls.rdPerTurnAround::16-31             1     25.00%     25.00% # Reads before turning the bus around for writes
system.mem_ctrls.rdPerTurnAround::32-47             1     25.00%     50.00% # Reads before turning the bus around for writes
system.mem_ctrls.rdPerTurnAround::48-63             1     25.00%     75.00% # Reads before turning the bus around for writes
system.mem_ctrls.rdPerTurnAround::416-431            1     25.00%    100.00% # Reads before turning the bus around for writes
system.mem_ctrls.rdPerTurnAround::total             4                       # Reads before turning the bus around for writes
system.mem_ctrls.wrPerTurnAround::samples            4                       # Writes before turning the bus around for reads
system.mem_ctrls.wrPerTurnAround::mean             16                       # Writes before turning the bus around for reads
system.mem_ctrls.wrPerTurnAround::gmean     16.000000                       # Writes before turning the bus around for reads
system.mem_ctrls.wrPerTurnAround::16                4    100.00%    100.00% # Writes before turning the bus around for reads
system.mem_ctrls.wrPerTurnAround::total             4                       # Writes before turning the bus around for reads
system.mem_ctrls.bytesReadDRAM                  37440                       # Total number of bytes read from DRAM
system.mem_ctrls.bytesReadWrQ                    8384                       # Total number of bytes read from write queue
system.mem_ctrls.bytesWritten                    4096                       # Total number of bytes written to DRAM
system.mem_ctrls.bytesReadSys                   45824                       # Total read bytes from the system interface side
system.mem_ctrls.bytesWrittenSys                13312                       # Total written bytes from the system interface side
system.mem_ctrls.avgRdBW                       863.56                       # Average DRAM read bandwidth in MiByte/s
system.mem_ctrls.avgWrBW                        94.47                       # Average achieved write bandwidth in MiByte/s
system.mem_ctrls.avgRdBWSys                   1056.93                       # Average system read bandwidth in MiByte/s
system.mem_ctrls.avgWrBWSys                    307.04                       # Average system write bandwidth in MiByte/s
system.mem_ctrls.peakBW                      12800.00                       # Theoretical peak bandwidth in MiByte/s
system.mem_ctrls.busUtil                         7.48                       # Data bus utilization in percentage
system.mem_ctrls.busUtilRead                     6.75                       # Data bus utilization in percentage for reads
system.mem_ctrls.busUtilWrite                    0.74                       # Data bus utilization in percentage for writes
system.mem_ctrls.totGap                      43299324                       # Total gap between requests
system.mem_ctrls.avgGap                      46860.74                       # Average gap between requests
system.mem_ctrls.masterReadBytes::.cpu.inst        25792                       # Per-master bytes read from memory
system.mem_ctrls.masterReadBytes::.cpu.data        11648                       # Per-master bytes read from memory
system.mem_ctrls.masterWriteBytes::.writebacks         4096                       # Per-master bytes write to memory
system.mem_ctrls.masterReadRate::.cpu.inst 594894302.122579336166                       # Per-master bytes read from memory rate (Bytes/sec)
system.mem_ctrls.masterReadRate::.cpu.data 268661942.894068062305                       # Per-master bytes read from memory rate (Bytes/sec)
system.mem_ctrls.masterWriteRate::.writebacks 94474529.369342625141                       # Per-master bytes write to memory rate (Bytes/sec)
system.mem_ctrls.masterReadAccesses::.cpu.inst          533                       # Per-master read serviced memory accesses
system.mem_ctrls.masterReadAccesses::.cpu.data          183                       # Per-master read serviced memory accesses
system.mem_ctrls.masterWriteAccesses::.writebacks          208                       # Per-master write serviced memory accesses
system.mem_ctrls.masterReadTotalLat::.cpu.inst     10064829                       # Per-master read total memory access latency
system.mem_ctrls.masterReadTotalLat::.cpu.data      4809083                       # Per-master read total memory access latency
system.mem_ctrls.masterWriteTotalLat::.writebacks    406340186                       # Per-master write total memory access latency
system.mem_ctrls.masterReadAvgLat::.cpu.inst     18883.36                       # Per-master read average memory access latency
system.mem_ctrls.masterReadAvgLat::.cpu.data     26279.14                       # Per-master read average memory access latency
system.mem_ctrls.masterWriteAvgLat::.writebacks   1953558.59                       # Per-master write average memory access latency
system.mem_ctrls.pageHitRate                    77.70                       # Row buffer hit rate, read and write combined
system.mem_ctrls.rank1.actEnergy               499800                       # Energy for activate commands per rank (pJ)
system.mem_ctrls.rank1.preEnergy               242880                       # Energy for precharge commands per rank (pJ)
system.mem_ctrls.rank1.readEnergy             2199120                       # Energy for read commands per rank (pJ)
system.mem_ctrls.rank1.writeEnergy             187920                       # Energy for write commands per rank (pJ)
system.mem_ctrls.rank1.refreshEnergy     3073200.000000                       # Energy for refresh commands per rank (pJ)
system.mem_ctrls.rank1.actBackEnergy         18062160                       # Energy for active background per rank (pJ)
system.mem_ctrls.rank1.preBackEnergy          1438560                       # Energy for precharge background per rank (pJ)
system.mem_ctrls.rank1.actPowerDownEnergy            0                       # Energy for active power-down per rank (pJ)
system.mem_ctrls.rank1.prePowerDownEnergy            0                       # Energy for precharge power-down per rank (pJ)
system.mem_ctrls.rank1.selfRefreshEnergy            0                       # Energy for self refresh per rank (pJ)
system.mem_ctrls.rank1.totalEnergy           25703640                       # Total energy per rank (pJ)
system.mem_ctrls.rank1.averagePower        592.856272                       # Core power per rank (mW)
system.mem_ctrls.rank1.totalIdleTime                0                       # Total Idle time Per DRAM Rank
system.mem_ctrls.rank1.memoryStateTime::IDLE      3594513                       # Time in different power states
system.mem_ctrls.rank1.memoryStateTime::REF      1300000                       # Time in different power states
system.mem_ctrls.rank1.memoryStateTime::SREF            0                       # Time in different power states
system.mem_ctrls.rank1.memoryStateTime::PRE_PDN            0                       # Time in different power states
system.mem_ctrls.rank1.memoryStateTime::ACT     38461088                       # Time in different power states
system.mem_ctrls.rank1.memoryStateTime::ACT_PDN            0                       # Time in different power states
system.mem_ctrls.rank0.actEnergy               378420                       # Energy for activate commands per rank (pJ)
system.mem_ctrls.rank0.preEnergy               185955                       # Energy for precharge commands per rank (pJ)
system.mem_ctrls.rank0.readEnergy             1977780                       # Energy for read commands per rank (pJ)
system.mem_ctrls.rank0.writeEnergy             146160                       # Energy for write commands per rank (pJ)
system.mem_ctrls.rank0.refreshEnergy     3073200.000000                       # Energy for refresh commands per rank (pJ)
system.mem_ctrls.rank0.actBackEnergy         15301080                       # Energy for active background per rank (pJ)
system.mem_ctrls.rank0.preBackEnergy          3763680                       # Energy for precharge background per rank (pJ)
system.mem_ctrls.rank0.actPowerDownEnergy            0                       # Energy for active power-down per rank (pJ)
system.mem_ctrls.rank0.prePowerDownEnergy            0                       # Energy for precharge power-down per rank (pJ)
system.mem_ctrls.rank0.selfRefreshEnergy            0                       # Energy for self refresh per rank (pJ)
system.mem_ctrls.rank0.totalEnergy           24826275                       # Total energy per rank (pJ)
system.mem_ctrls.rank0.averagePower        572.619787                       # Core power per rank (mW)
system.mem_ctrls.rank0.totalIdleTime                0                       # Total Idle time Per DRAM Rank
system.mem_ctrls.rank0.memoryStateTime::IDLE      9649491                       # Time in different power states
system.mem_ctrls.rank0.memoryStateTime::REF      1300000                       # Time in different power states
system.mem_ctrls.rank0.memoryStateTime::SREF            0                       # Time in different power states
system.mem_ctrls.rank0.memoryStateTime::PRE_PDN            0                       # Time in different power states
system.mem_ctrls.rank0.memoryStateTime::ACT     32406110                       # Time in different power states
system.mem_ctrls.rank0.memoryStateTime::ACT_PDN            0                       # Time in different power states
system.cpu_clk_domain.clock                       333                       # Clock period in ticks
system.cpu.pwrStateResidencyTicks::ON        43355601                       # Cumulative time (in ticks) in various power states
system.cpu.icache.pwrStateResidencyTicks::UNDEFINED     43355601                       # Cumulative time (in ticks) in various power states
system.cpu.icache.demand_hits::.cpu.inst         9620                       # number of demand (read+write) hits
system.cpu.icache.demand_hits::total             9620                       # number of demand (read+write) hits
system.cpu.icache.overall_hits::.cpu.inst         9620                       # number of overall hits
system.cpu.icache.overall_hits::total            9620                       # number of overall hits
system.cpu.icache.demand_misses::.cpu.inst          533                       # number of demand (read+write) misses
system.cpu.icache.demand_misses::total            533                       # number of demand (read+write) misses
system.cpu.icache.overall_misses::.cpu.inst          533                       # number of overall misses
system.cpu.icache.overall_misses::total           533                       # number of overall misses
system.cpu.icache.demand_miss_latency::.cpu.inst     26396910                       # number of demand (read+write) miss cycles
system.cpu.icache.demand_miss_latency::total     26396910                       # number of demand (read+write) miss cycles
system.cpu.icache.overall_miss_latency::.cpu.inst     26396910                       # number of overall miss cycles
system.cpu.icache.overall_miss_latency::total     26396910                       # number of overall miss cycles
system.cpu.icache.demand_accesses::.cpu.inst        10153                       # number of demand (read+write) accesses
system.cpu.icache.demand_accesses::total        10153                       # number of demand (read+write) accesses
system.cpu.icache.overall_accesses::.cpu.inst        10153                       # number of overall (read+write) accesses
system.cpu.icache.overall_accesses::total        10153                       # number of overall (read+write) accesses
system.cpu.icache.demand_miss_rate::.cpu.inst     0.052497                       # miss rate for demand accesses
system.cpu.icache.demand_miss_rate::total     0.052497                       # miss rate for demand accesses
system.cpu.icache.overall_miss_rate::.cpu.inst     0.052497                       # miss rate for overall accesses
system.cpu.icache.overall_miss_rate::total     0.052497                       # miss rate for overall accesses
system.cpu.icache.demand_avg_miss_latency::.cpu.inst 49525.159475                       # average overall miss latency
system.cpu.icache.demand_avg_miss_latency::total 49525.159475                       # average overall miss latency
system.cpu.icache.overall_avg_miss_latency::.cpu.inst 49525.159475                       # average overall miss latency
system.cpu.icache.overall_avg_miss_latency::total 49525.159475                       # average overall miss latency
system.cpu.icache.blocked_cycles::no_mshrs            0                       # number of cycles access was blocked
system.cpu.icache.blocked_cycles::no_targets            0                       # number of cycles access was blocked
system.cpu.icache.blocked::no_mshrs                 0                       # number of cycles access was blocked
system.cpu.icache.blocked::no_targets               0                       # number of cycles access was blocked
system.cpu.icache.avg_blocked_cycles::no_mshrs          nan                       # average number of cycles each access was blocked
system.cpu.icache.avg_blocked_cycles::no_targets          nan                       # average number of cycles each access was blocked
system.cpu.icache.writebacks::.writebacks          213                       # number of writebacks
system.cpu.icache.writebacks::total               213                       # number of writebacks
system.cpu.icache.demand_mshr_misses::.cpu.inst          533                       # number of demand (read+write) MSHR misses
system.cpu.icache.demand_mshr_misses::total          533                       # number of demand (read+write) MSHR misses
system.cpu.icache.overall_mshr_misses::.cpu.inst          533                       # number of overall MSHR misses
system.cpu.icache.overall_mshr_misses::total          533                       # number of overall MSHR misses
system.cpu.icache.demand_mshr_miss_latency::.cpu.inst     25952204                       # number of demand (read+write) MSHR miss cycles
system.cpu.icache.demand_mshr_miss_latency::total     25952204                       # number of demand (read+write) MSHR miss cycles
system.cpu.icache.overall_mshr_miss_latency::.cpu.inst     25952204                       # number of overall MSHR miss cycles
system.cpu.icache.overall_mshr_miss_latency::total     25952204                       # number of overall MSHR miss cycles
system.cpu.icache.demand_mshr_miss_rate::.cpu.inst     0.052497                       # mshr miss rate for demand accesses
system.cpu.icache.demand_mshr_miss_rate::total     0.052497                       # mshr miss rate for demand accesses
system.cpu.icache.overall_mshr_miss_rate::.cpu.inst     0.052497                       # mshr miss rate for overall accesses
system.cpu.icache.overall_mshr_miss_rate::total     0.052497                       # mshr miss rate for overall accesses
system.cpu.icache.demand_avg_mshr_miss_latency::.cpu.inst 48690.814259                       # average overall mshr miss latency
system.cpu.icache.demand_avg_mshr_miss_latency::total 48690.814259                       # average overall mshr miss latency
system.cpu.icache.overall_avg_mshr_miss_latency::.cpu.inst 48690.814259                       # average overall mshr miss latency
system.cpu.icache.overall_avg_mshr_miss_latency::total 48690.814259                       # average overall mshr miss latency
system.cpu.icache.replacements                    213                       # number of replacements
system.cpu.icache.ReadReq_hits::.cpu.inst         9620                       # number of ReadReq hits
system.cpu.icache.ReadReq_hits::total            9620                       # number of ReadReq hits
system.cpu.icache.ReadReq_misses::.cpu.inst          533                       # number of ReadReq misses
system.cpu.icache.ReadReq_misses::total           533                       # number of ReadReq misses
system.cpu.icache.ReadReq_miss_latency::.cpu.inst     26396910                       # number of ReadReq miss cycles
system.cpu.icache.ReadReq_miss_latency::total     26396910                       # number of ReadReq miss cycles
system.cpu.icache.ReadReq_accesses::.cpu.inst        10153                       # number of ReadReq accesses(hits+misses)
system.cpu.icache.ReadReq_accesses::total        10153                       # number of ReadReq accesses(hits+misses)
system.cpu.icache.ReadReq_miss_rate::.cpu.inst     0.052497                       # miss rate for ReadReq accesses
system.cpu.icache.ReadReq_miss_rate::total     0.052497                       # miss rate for ReadReq accesses
system.cpu.icache.ReadReq_avg_miss_latency::.cpu.inst 49525.159475                       # average ReadReq miss latency
system.cpu.icache.ReadReq_avg_miss_latency::total 49525.159475                       # average ReadReq miss latency
system.cpu.icache.ReadReq_mshr_misses::.cpu.inst          533                       # number of ReadReq MSHR misses
system.cpu.icache.ReadReq_mshr_misses::total          533                       # number of ReadReq MSHR misses
system.cpu.icache.ReadReq_mshr_miss_latency::.cpu.inst     25952204                       # number of ReadReq MSHR miss cycles
system.cpu.icache.ReadReq_mshr_miss_latency::total     25952204                       # number of ReadReq MSHR miss cycles
system.cpu.icache.ReadReq_mshr_miss_rate::.cpu.inst     0.052497                       # mshr miss rate for ReadReq accesses
system.cpu.icache.ReadReq_mshr_miss_rate::total     0.052497                       # mshr miss rate for ReadReq accesses
system.cpu.icache.ReadReq_avg_mshr_miss_latency::.cpu.inst 48690.814259                       # average ReadReq mshr miss latency
system.cpu.icache.ReadReq_avg_mshr_miss_latency::total 48690.814259                       # average ReadReq mshr miss latency
system.cpu.icache.tags.pwrStateResidencyTicks::UNDEFINED     43355601                       # Cumulative time (in ticks) in various power states
system.cpu.icache.tags.tagsinuse           206.413571                       # Cycle average of tags in use
system.cpu.icache.tags.total_refs               10153                       # Total number of references to valid blocks.
system.cpu.icache.tags.sampled_refs               533                       # Sample count of references to valid blocks.
system.cpu.icache.tags.avg_refs             19.048780                       # Average number of references to valid blocks.
system.cpu.icache.tags.warmup_cycle             77000                       # Cycle when the warmup percentage was hit.
system.cpu.icache.tags.occ_blocks::.cpu.inst   206.413571                       # Average occupied blocks per requestor
system.cpu.icache.tags.occ_percent::.cpu.inst     0.403152                       # Average percentage of cache occupancy
system.cpu.icache.tags.occ_percent::total     0.403152                       # Average percentage of cache occupancy
system.cpu.icache.tags.occ_task_id_blocks::1024          320                       # Occupied blocks per task id
system.cpu.icache.tags.age_task_id_blocks_1024::0           55                       # Occupied blocks per task id
system.cpu.icache.tags.age_task_id_blocks_1024::1          265                       # Occupied blocks per task id
system.cpu.icache.tags.occ_task_id_percent::1024     0.625000                       # Percentage of cache occupancy per task id
system.cpu.icache.tags.tag_accesses             20839                       # Number of tag accesses
system.cpu.icache.tags.data_accesses            20839                       # Number of data accesses
system.cpu.dtb.walker.pwrStateResidencyTicks::UNDEFINED     43355601                       # Cumulative time (in ticks) in various power states
system.cpu.dtb.stage2_mmu.stage2_tlb.walker.pwrStateResidencyTicks::UNDEFINED     43355601                       # Cumulative time (in ticks) in various power states
system.cpu.dcache.pwrStateResidencyTicks::UNDEFINED     43355601                       # Cumulative time (in ticks) in various power states
system.cpu.dcache.demand_hits::.cpu.data         9469                       # number of demand (read+write) hits
system.cpu.dcache.demand_hits::total             9469                       # number of demand (read+write) hits
system.cpu.dcache.overall_hits::.cpu.data         9487                       # number of overall hits
system.cpu.dcache.overall_hits::total            9487                       # number of overall hits
system.cpu.dcache.demand_misses::.cpu.data          227                       # number of demand (read+write) misses
system.cpu.dcache.demand_misses::total            227                       # number of demand (read+write) misses
system.cpu.dcache.overall_misses::.cpu.data          237                       # number of overall misses
system.cpu.dcache.overall_misses::total           237                       # number of overall misses
system.cpu.dcache.demand_miss_latency::.cpu.data     13262591                       # number of demand (read+write) miss cycles
system.cpu.dcache.demand_miss_latency::total     13262591                       # number of demand (read+write) miss cycles
system.cpu.dcache.overall_miss_latency::.cpu.data     13262591                       # number of overall miss cycles
system.cpu.dcache.overall_miss_latency::total     13262591                       # number of overall miss cycles
system.cpu.dcache.demand_accesses::.cpu.data         9696                       # number of demand (read+write) accesses
system.cpu.dcache.demand_accesses::total         9696                       # number of demand (read+write) accesses
system.cpu.dcache.overall_accesses::.cpu.data         9724                       # number of overall (read+write) accesses
system.cpu.dcache.overall_accesses::total         9724                       # number of overall (read+write) accesses
system.cpu.dcache.demand_miss_rate::.cpu.data     0.023412                       # miss rate for demand accesses
system.cpu.dcache.demand_miss_rate::total     0.023412                       # miss rate for demand accesses
system.cpu.dcache.overall_miss_rate::.cpu.data     0.024373                       # miss rate for overall accesses
system.cpu.dcache.overall_miss_rate::total     0.024373                       # miss rate for overall accesses
system.cpu.dcache.demand_avg_miss_latency::.cpu.data 58425.511013                       # average overall miss latency
system.cpu.dcache.demand_avg_miss_latency::total 58425.511013                       # average overall miss latency
system.cpu.dcache.overall_avg_miss_latency::.cpu.data 55960.299578                       # average overall miss latency
system.cpu.dcache.overall_avg_miss_latency::total 55960.299578                       # average overall miss latency
system.cpu.dcache.blocked_cycles::no_mshrs            0                       # number of cycles access was blocked
system.cpu.dcache.blocked_cycles::no_targets            0                       # number of cycles access was blocked
system.cpu.dcache.blocked::no_mshrs                 0                       # number of cycles access was blocked
system.cpu.dcache.blocked::no_targets               0                       # number of cycles access was blocked
system.cpu.dcache.avg_blocked_cycles::no_mshrs          nan                       # average number of cycles each access was blocked
system.cpu.dcache.avg_blocked_cycles::no_targets          nan                       # average number of cycles each access was blocked
system.cpu.dcache.demand_mshr_hits::.cpu.data           51                       # number of demand (read+write) MSHR hits
system.cpu.dcache.demand_mshr_hits::total           51                       # number of demand (read+write) MSHR hits
system.cpu.dcache.overall_mshr_hits::.cpu.data           51                       # number of overall MSHR hits
system.cpu.dcache.overall_mshr_hits::total           51                       # number of overall MSHR hits
system.cpu.dcache.demand_mshr_misses::.cpu.data          176                       # number of demand (read+write) MSHR misses
system.cpu.dcache.demand_mshr_misses::total          176                       # number of demand (read+write) MSHR misses
system.cpu.dcache.overall_mshr_misses::.cpu.data          183                       # number of overall MSHR misses
system.cpu.dcache.overall_mshr_misses::total          183                       # number of overall MSHR misses
system.cpu.dcache.demand_mshr_miss_latency::.cpu.data     10206000                       # number of demand (read+write) MSHR miss cycles
system.cpu.dcache.demand_mshr_miss_latency::total     10206000                       # number of demand (read+write) MSHR miss cycles
system.cpu.dcache.overall_mshr_miss_latency::.cpu.data     10609572                       # number of overall MSHR miss cycles
system.cpu.dcache.overall_mshr_miss_latency::total     10609572                       # number of overall MSHR miss cycles
system.cpu.dcache.demand_mshr_miss_rate::.cpu.data     0.018152                       # mshr miss rate for demand accesses
system.cpu.dcache.demand_mshr_miss_rate::total     0.018152                       # mshr miss rate for demand accesses
system.cpu.dcache.overall_mshr_miss_rate::.cpu.data     0.018819                       # mshr miss rate for overall accesses
system.cpu.dcache.overall_mshr_miss_rate::total     0.018819                       # mshr miss rate for overall accesses
system.cpu.dcache.demand_avg_mshr_miss_latency::.cpu.data 57988.636364                       # average overall mshr miss latency
system.cpu.dcache.demand_avg_mshr_miss_latency::total 57988.636364                       # average overall mshr miss latency
system.cpu.dcache.overall_avg_mshr_miss_latency::.cpu.data 57975.803279                       # average overall mshr miss latency
system.cpu.dcache.overall_avg_mshr_miss_latency::total 57975.803279                       # average overall mshr miss latency
system.cpu.dcache.replacements                      1                       # number of replacements
system.cpu.dcache.ReadReq_hits::.cpu.data         5080                       # number of ReadReq hits
system.cpu.dcache.ReadReq_hits::total            5080                       # number of ReadReq hits
system.cpu.dcache.ReadReq_misses::.cpu.data          108                       # number of ReadReq misses
system.cpu.dcache.ReadReq_misses::total           108                       # number of ReadReq misses
system.cpu.dcache.ReadReq_miss_latency::.cpu.data      6198474                       # number of ReadReq miss cycles
system.cpu.dcache.ReadReq_miss_latency::total      6198474                       # number of ReadReq miss cycles
system.cpu.dcache.ReadReq_accesses::.cpu.data         5188                       # number of ReadReq accesses(hits+misses)
system.cpu.dcache.ReadReq_accesses::total         5188                       # number of ReadReq accesses(hits+misses)
system.cpu.dcache.ReadReq_miss_rate::.cpu.data     0.020817                       # miss rate for ReadReq accesses
system.cpu.dcache.ReadReq_miss_rate::total     0.020817                       # miss rate for ReadReq accesses
system.cpu.dcache.ReadReq_avg_miss_latency::.cpu.data 57393.277778                       # average ReadReq miss latency
system.cpu.dcache.ReadReq_avg_miss_latency::total 57393.277778                       # average ReadReq miss latency
system.cpu.dcache.ReadReq_mshr_hits::.cpu.data            3                       # number of ReadReq MSHR hits
system.cpu.dcache.ReadReq_mshr_hits::total            3                       # number of ReadReq MSHR hits
system.cpu.dcache.ReadReq_mshr_misses::.cpu.data          105                       # number of ReadReq MSHR misses
system.cpu.dcache.ReadReq_mshr_misses::total          105                       # number of ReadReq MSHR misses
system.cpu.dcache.ReadReq_mshr_miss_latency::.cpu.data      5936519                       # number of ReadReq MSHR miss cycles
system.cpu.dcache.ReadReq_mshr_miss_latency::total      5936519                       # number of ReadReq MSHR miss cycles
system.cpu.dcache.ReadReq_mshr_miss_rate::.cpu.data     0.020239                       # mshr miss rate for ReadReq accesses
system.cpu.dcache.ReadReq_mshr_miss_rate::total     0.020239                       # mshr miss rate for ReadReq accesses
system.cpu.dcache.ReadReq_avg_mshr_miss_latency::.cpu.data 56538.276190                       # average ReadReq mshr miss latency
system.cpu.dcache.ReadReq_avg_mshr_miss_latency::total 56538.276190                       # average ReadReq mshr miss latency
system.cpu.dcache.WriteReq_hits::.cpu.data         4389                       # number of WriteReq hits
system.cpu.dcache.WriteReq_hits::total           4389                       # number of WriteReq hits
system.cpu.dcache.WriteReq_misses::.cpu.data          119                       # number of WriteReq misses
system.cpu.dcache.WriteReq_misses::total          119                       # number of WriteReq misses
system.cpu.dcache.WriteReq_miss_latency::.cpu.data      7064117                       # number of WriteReq miss cycles
system.cpu.dcache.WriteReq_miss_latency::total      7064117                       # number of WriteReq miss cycles
system.cpu.dcache.WriteReq_accesses::.cpu.data         4508                       # number of WriteReq accesses(hits+misses)
system.cpu.dcache.WriteReq_accesses::total         4508                       # number of WriteReq accesses(hits+misses)
system.cpu.dcache.WriteReq_miss_rate::.cpu.data     0.026398                       # miss rate for WriteReq accesses
system.cpu.dcache.WriteReq_miss_rate::total     0.026398                       # miss rate for WriteReq accesses
system.cpu.dcache.WriteReq_avg_miss_latency::.cpu.data 59362.327731                       # average WriteReq miss latency
system.cpu.dcache.WriteReq_avg_miss_latency::total 59362.327731                       # average WriteReq miss latency
system.cpu.dcache.WriteReq_mshr_hits::.cpu.data           48                       # number of WriteReq MSHR hits
system.cpu.dcache.WriteReq_mshr_hits::total           48                       # number of WriteReq MSHR hits
system.cpu.dcache.WriteReq_mshr_misses::.cpu.data           71                       # number of WriteReq MSHR misses
system.cpu.dcache.WriteReq_mshr_misses::total           71                       # number of WriteReq MSHR misses
system.cpu.dcache.WriteReq_mshr_miss_latency::.cpu.data      4269481                       # number of WriteReq MSHR miss cycles
system.cpu.dcache.WriteReq_mshr_miss_latency::total      4269481                       # number of WriteReq MSHR miss cycles
system.cpu.dcache.WriteReq_mshr_miss_rate::.cpu.data     0.015750                       # mshr miss rate for WriteReq accesses
system.cpu.dcache.WriteReq_mshr_miss_rate::total     0.015750                       # mshr miss rate for WriteReq accesses
system.cpu.dcache.WriteReq_avg_mshr_miss_latency::.cpu.data 60133.535211                       # average WriteReq mshr miss latency
system.cpu.dcache.WriteReq_avg_mshr_miss_latency::total 60133.535211                       # average WriteReq mshr miss latency
system.cpu.dcache.SoftPFReq_hits::.cpu.data           18                       # number of SoftPFReq hits
system.cpu.dcache.SoftPFReq_hits::total            18                       # number of SoftPFReq hits
system.cpu.dcache.SoftPFReq_misses::.cpu.data           10                       # number of SoftPFReq misses
system.cpu.dcache.SoftPFReq_misses::total           10                       # number of SoftPFReq misses
system.cpu.dcache.SoftPFReq_accesses::.cpu.data           28                       # number of SoftPFReq accesses(hits+misses)
system.cpu.dcache.SoftPFReq_accesses::total           28                       # number of SoftPFReq accesses(hits+misses)
system.cpu.dcache.SoftPFReq_miss_rate::.cpu.data     0.357143                       # miss rate for SoftPFReq accesses
system.cpu.dcache.SoftPFReq_miss_rate::total     0.357143                       # miss rate for SoftPFReq accesses
system.cpu.dcache.SoftPFReq_mshr_misses::.cpu.data            7                       # number of SoftPFReq MSHR misses
system.cpu.dcache.SoftPFReq_mshr_misses::total            7                       # number of SoftPFReq MSHR misses
system.cpu.dcache.SoftPFReq_mshr_miss_latency::.cpu.data       403572                       # number of SoftPFReq MSHR miss cycles
system.cpu.dcache.SoftPFReq_mshr_miss_latency::total       403572                       # number of SoftPFReq MSHR miss cycles
system.cpu.dcache.SoftPFReq_mshr_miss_rate::.cpu.data     0.250000                       # mshr miss rate for SoftPFReq accesses
system.cpu.dcache.SoftPFReq_mshr_miss_rate::total     0.250000                       # mshr miss rate for SoftPFReq accesses
system.cpu.dcache.SoftPFReq_avg_mshr_miss_latency::.cpu.data 57653.142857                       # average SoftPFReq mshr miss latency
system.cpu.dcache.SoftPFReq_avg_mshr_miss_latency::total 57653.142857                       # average SoftPFReq mshr miss latency
system.cpu.dcache.LoadLockedReq_hits::.cpu.data           74                       # number of LoadLockedReq hits
system.cpu.dcache.LoadLockedReq_hits::total           74                       # number of LoadLockedReq hits
system.cpu.dcache.LoadLockedReq_accesses::.cpu.data           74                       # number of LoadLockedReq accesses(hits+misses)
system.cpu.dcache.LoadLockedReq_accesses::total           74                       # number of LoadLockedReq accesses(hits+misses)
system.cpu.dcache.StoreCondReq_hits::.cpu.data           74                       # number of StoreCondReq hits
system.cpu.dcache.StoreCondReq_hits::total           74                       # number of StoreCondReq hits
system.cpu.dcache.StoreCondReq_accesses::.cpu.data           74                       # number of StoreCondReq accesses(hits+misses)
system.cpu.dcache.StoreCondReq_accesses::total           74                       # number of StoreCondReq accesses(hits+misses)
system.cpu.dcache.tags.pwrStateResidencyTicks::UNDEFINED     43355601                       # Cumulative time (in ticks) in various power states
system.cpu.dcache.tags.tagsinuse           118.203492                       # Cycle average of tags in use
system.cpu.dcache.tags.total_refs                9818                       # Total number of references to valid blocks.
system.cpu.dcache.tags.sampled_refs               183                       # Sample count of references to valid blocks.
system.cpu.dcache.tags.avg_refs             53.650273                       # Average number of references to valid blocks.
system.cpu.dcache.tags.warmup_cycle            144000                       # Cycle when the warmup percentage was hit.
system.cpu.dcache.tags.occ_blocks::.cpu.data   118.203492                       # Average occupied blocks per requestor
system.cpu.dcache.tags.occ_percent::.cpu.data     0.115433                       # Average percentage of cache occupancy
system.cpu.dcache.tags.occ_percent::total     0.115433                       # Average percentage of cache occupancy
system.cpu.dcache.tags.occ_task_id_blocks::1024          182                       # Occupied blocks per task id
system.cpu.dcache.tags.age_task_id_blocks_1024::0           18                       # Occupied blocks per task id
system.cpu.dcache.tags.age_task_id_blocks_1024::1          164                       # Occupied blocks per task id
system.cpu.dcache.tags.occ_task_id_percent::1024     0.177734                       # Percentage of cache occupancy per task id
system.cpu.dcache.tags.tag_accesses             19927                       # Number of tag accesses
system.cpu.dcache.tags.data_accesses            19927                       # Number of data accesses
system.cpu.itb.walker.pwrStateResidencyTicks::UNDEFINED     43355601                       # Cumulative time (in ticks) in various power states
system.cpu.itb.stage2_mmu.stage2_tlb.walker.pwrStateResidencyTicks::UNDEFINED     43355601                       # Cumulative time (in ticks) in various power states

---------- End Simulation Statistics   ----------
